NDPIS/Case4/WithoutDG/case4_WithoutDG_Power_elem_kVA.txt

CIRCUIT ELEMENT POWER FLOW

(Power Flow into element from indicated Bus)

Power Delivery Elements

  Bus     Phase     kW     +j   kvar         kVA         PF

ELEMENT = "Vsource.SOURCE"
SOURCEBUS     1     -2841.8 +j    290.2     2856.6      -0.9948
SOURCEBUS     2     -2841.8 +j    290.2     2856.6      -0.9948
SOURCEBUS     3     -2841.8 +j    290.2     2856.6      -0.9948
   TERMINAL TOTAL . -8525.5 +j    870.5     8569.8      -0.9948
SOURCEBUS     0         0.0 +j      0.0        0.0       1.0000
SOURCEBUS     0         0.0 +j      0.0        0.0       1.0000
SOURCEBUS     0         0.0 +j      0.0        0.0       1.0000
   TERMINAL TOTAL .     0.0 +j      0.0        0.0       1.0000

ELEMENT = "Line.650631"
SOURCEBUS     1      2841.8 +j   -290.2     2856.6      -0.9948
SOURCEBUS     2      2841.8 +j   -290.2     2856.6      -0.9948
SOURCEBUS     3      2841.8 +j   -290.2     2856.6      -0.9948
   TERMINAL TOTAL .  8525.5 +j   -870.5     8569.8      -0.9948
2             1     -2801.5 +j    344.1     2822.6      -0.9925
2             2     -2801.5 +j    344.1     2822.6      -0.9925
2             3     -2801.5 +j    344.1     2822.6      -0.9925
   TERMINAL TOTAL . -8404.5 +j   1032.2     8467.7      -0.9925

ELEMENT = "Line.650632"
2             1      1601.6 +j   -164.1     1610.0      -0.9948
2             2      1601.6 +j   -164.1     1610.0      -0.9948
2             3      1601.6 +j   -164.1     1610.0      -0.9948
   TERMINAL TOTAL .  4804.9 +j   -492.3     4830.0      -0.9948
3             1     -1591.7 +j    190.4     1603.0      -0.9929
3             2     -1591.7 +j    190.4     1603.0      -0.9929
3             3     -1591.7 +j    190.4     1603.0      -0.9929
   TERMINAL TOTAL . -4775.0 +j    571.3     4809.1      -0.9929

ELEMENT = "Line.650633"
3             1      1033.1 +j    142.9     1042.9       0.9906
3             2      1033.1 +j    142.9     1042.9       0.9906
3             3      1033.1 +j    142.9     1042.9       0.9906
   TERMINAL TOTAL .  3099.2 +j    428.6     3128.7       0.9906
4             1     -1031.3 +j   -138.2     1040.5       0.9911
4             2     -1031.3 +j   -138.2     1040.5       0.9911
4             3     -1031.3 +j   -138.2     1040.5       0.9911
   TERMINAL TOTAL . -3094.0 +j   -414.6     3121.6       0.9911

ELEMENT = "Line.650634"
4             1      1031.3 +j    138.2     1040.5       0.9911
4             2      1031.3 +j    138.2     1040.5       0.9911
4             3      1031.3 +j    138.2     1040.5       0.9911
   TERMINAL TOTAL .  3094.0 +j    414.6     3121.6       0.9911
5             1     -1031.0 +j   -137.3     1040.1       0.9913
5             2     -1031.0 +j   -137.3     1040.1       0.9913
5             3     -1031.0 +j   -137.3     1040.1       0.9913
   TERMINAL TOTAL . -3092.9 +j   -411.8     3120.2       0.9913

ELEMENT = "Line.650635"
5             1       364.4 +j     69.6      371.0       0.9822
5             2       364.4 +j     69.6      371.0       0.9822
5             3       364.4 +j     69.6      371.0       0.9822
   TERMINAL TOTAL .  1093.2 +j    208.9     1113.0       0.9822
6             1      -363.3 +j    -66.7      369.3       0.9836
6             2      -363.3 +j    -66.7      369.3       0.9836
6             3      -363.3 +j    -66.7      369.3       0.9836
   TERMINAL TOTAL . -1089.8 +j   -200.0     1108.0       0.9836

ELEMENT = "Line.650636"
6             1         0.0 +j      0.0        0.0       0.7639
6             2        -0.0 +j      0.0        0.0      -0.9897
6             3        -0.0 +j     -0.0        0.0       0.6190
   TERMINAL TOTAL .    -0.0 +j      0.0        0.0      -0.8211
7             1        -0.0 +j     -0.0        0.0       0.7639
7             2         0.0 +j     -0.0        0.0      -0.9897
7             3         0.0 +j      0.0        0.0       0.6190
   TERMINAL TOTAL .     0.0 +j     -0.0        0.0      -0.8211

ELEMENT = "Line.650637"
5             1        -0.0 +j      0.0        0.0      -0.0000
5             2         0.0 +j     -0.0        0.0      -0.6636
5             3         0.0 +j      0.0        0.0       0.9017
   TERMINAL TOTAL .     0.0 +j      0.0        0.0       0.0000
8             1         0.0 +j     -0.0        0.0      -0.0000
8             2        -0.0 +j      0.0        0.0      -0.6636
8             3        -0.0 +j     -0.0        0.0       0.9017
   TERMINAL TOTAL .    -0.0 +j     -0.0        0.0       0.0000

ELEMENT = "Line.650638"
9             1        -0.0 +j     -0.0        0.0       0.3161
   TERMINAL TOTAL .    -0.0 +j     -0.0        0.0       0.3161
10            1         0.0 +j      0.0        0.0       0.3161
   TERMINAL TOTAL .     0.0 +j      0.0        0.0       0.3161

ELEMENT = "Transformer.XFM1"
8             1         0.0 +j      0.0        0.0       0.0000
8             0         0.0 +j      0.0        0.0       1.0000
   TERMINAL TOTAL .     0.0 +j      0.0        0.0       0.0000
9             1        -0.0 +j      0.0        0.0      -0.3775
9             0         0.0 +j      0.0        0.0       1.0000
   TERMINAL TOTAL .    -0.0 +j      0.0        0.0      -0.3775

= = = = = = = = = = = = = = = = = = =  = = = = = = = = = = =  = =

Power Conversion Elements

  Bus     Phase     kW   +j  kvar         kVA         PF

ELEMENT = "Load.1"
2             1    1199.9 +j -180.1     1213.4      -0.9889
2             2    1199.9 +j -180.1     1213.4      -0.9889
2             3    1199.9 +j -180.1     1213.4      -0.9889
  TERMINAL TOTAL  .  3599.8 +j   -540.3     3640.1      -0.9889

ELEMENT = "Load.2"
3             1     558.6 +j -333.4      650.5      -0.8587
3             2     558.6 +j -333.4      650.5      -0.8587
3             3     558.6 +j -333.4      650.5      -0.8587
  TERMINAL TOTAL  .  1675.8 +j  -1000.2     1951.5      -0.8587

ELEMENT = "Load.3"
5             1     666.6 +j   67.6      670.0       0.9949
5             2     666.6 +j   67.6      670.0       0.9949
5             3     666.6 +j   67.6      670.0       0.9949
  TERMINAL TOTAL  .  1999.9 +j    202.7     2010.1       0.9949

ELEMENT = "Load.4"
6             1     363.3 +j   66.6      369.4       0.9836
6             2     363.3 +j   66.6      369.4       0.9836
6             3     363.3 +j   66.6      369.4       0.9836
  TERMINAL TOTAL  .  1089.9 +j    199.8     1108.1       0.9836

ELEMENT = "Load.5"
10            1       0.0 +j    0.0        0.0       1.0000
10            0       0.0 +j    0.0        0.0       1.0000
  TERMINAL TOTAL  .     0.0 +j      0.0        0.0       1.0000


Total Circuit Losses =  160.5 +j  266.5
