NDPIS/Case4/WithoutDG/case4_WithoutDG_VLN_Node.Txt

LINE-GROUND and LINE-LINE VOLTAGES BY BUS & NODE

Bus       Node    VLN (kV)   Angle      pu     Base kV    Node-Node   VLL (kV)  Angle      pu

SOURCEBUS 1       6.5456 /_   -2.0    0.9945    11.400        1-2     11.337 /_   28.0    0.9945
   -      2       6.5456 /_ -122.0    0.9945    11.400        2-3     11.337 /_  -92.0    0.9945
   -      3       6.5456 /_  118.0    0.9945    11.400        3-1     11.337 /_  148.0    0.9945
2 ....... 1       6.4675 /_   -3.1   0.98264    11.400        1-2     11.202 /_   26.9   0.98264
   -      2       6.4675 /_ -123.1   0.98264    11.400        2-3     11.202 /_  -93.1   0.98264
   -      3       6.4675 /_  116.9   0.98264    11.400        3-1     11.202 /_  146.9   0.98264
3 ....... 1       6.4395 /_   -4.1   0.97838    11.400        1-2     11.154 /_   25.9   0.97838
   -      2       6.4395 /_ -124.1   0.97838    11.400        2-3     11.154 /_  -94.1   0.97838
   -      3       6.4395 /_  115.9   0.97838    11.400        3-1     11.154 /_  145.9   0.97838
4 ....... 1       6.4249 /_   -4.3   0.97617    11.400        1-2     11.128 /_   25.7   0.97617
   -      2       6.4249 /_ -124.3   0.97617    11.400        2-3     11.128 /_  -94.3   0.97617
   -      3       6.4249 /_  115.7   0.97617    11.400        3-1     11.128 /_  145.7   0.97617
5 ....... 1        6.422 /_   -4.4   0.97572    11.400        1-2     11.123 /_   25.6   0.97572
   -      2        6.422 /_ -124.4   0.97572    11.400        2-3     11.123 /_  -94.4   0.97572
   -      3        6.422 /_  115.6   0.97572    11.400        3-1     11.123 /_  145.6   0.97572
6 ....... 1       6.3935 /_   -4.8   0.97139    11.400        1-2     11.074 /_   25.2   0.97139
   -      2       6.3935 /_ -124.8   0.97139    11.400        2-3     11.074 /_  -94.8   0.97139
   -      3       6.3935 /_  115.2   0.97139    11.400        3-1     11.074 /_  145.2   0.97139
7 ....... 1       6.3935 /_   -4.8   0.97139    11.400        1-2     11.074 /_   25.2   0.97139
   -      2       6.3935 /_ -124.8   0.97139    11.400        2-3     11.074 /_  -94.8   0.97139
   -      3       6.3935 /_  115.2   0.97139    11.400        3-1     11.074 /_  145.2   0.97139
8 ....... 1        6.422 /_   -4.4   0.97572    11.400        1-2     11.123 /_   25.6   0.97572
   -      2        6.422 /_ -124.4   0.97572    11.400        2-3     11.123 /_  -94.4   0.97572
   -      3        6.422 /_  115.6   0.97572    11.400        3-1     11.123 /_  145.6   0.97572
9 ....... 1      0.12392 /_   -4.4   0.97559     0.220
10 ...... 1      0.12392 /_   -4.4   0.97559     0.220
